<edges><edge id="edge_wc" from="w" to="c" type="default" /><edge id="edge_sc" from="s" to="c" type="default" /><edge id="edge_ec" from="e" to="c" type="default" /><edge id="edge_nc" from="n" to="c" type="default" /><edge id="edge_ce" from="c" to="e" type="default" /><edge id="edge_cn" from="c" to="n" type="default" /><edge id="edge_cw" from="c" to="w" type="default" /><edge id="edge_cs" from="c" to="s" type="default" /></edges>