<?xml version="1.0" encoding="UTF-8"?>

<!-- generated on 2024-02-20 11:03:49 by Eclipse SUMO netconvert Version 1.12.0
<configuration xmlns:xsi="http://www.w3.org/2001/XMLSchema-instance" xsi:noNamespaceSchemaLocation="http://sumo.dlr.de/xsd/netconvertConfiguration.xsd">

    <input>
        <node-files value="test.nod.xml"/>
        <edge-files value="test.edg.xml"/>
        <connection-files value="test.con.xml"/>
        <tllogic-files value="test.ttl.xml"/>
        <type-files value="test.typ.xml"/>
    </input>

    <output>
        <output-file value="test.net.xml"/>
    </output>

    <report>
        <no-warnings value="true"/>
        <aggregate-warnings value="5"/>
    </report>

</configuration>
-->

<net version="1.9" junctionCornerDetail="5" limitTurnSpeed="5.50" xmlns:xsi="http://www.w3.org/2001/XMLSchema-instance" xsi:noNamespaceSchemaLocation="http://sumo.dlr.de/xsd/net_file.xsd">

    <location netOffset="200.00,200.00" convBoundary="0.00,0.00,400.00,400.00" origBoundary="-200.00,-200.00,200.00,200.00" projParameter="!"/>

    <type id="default" numLanes="1" speed="50.00"/>

    <edge id=":c_0" function="internal">
        <lane id=":c_0_0" index="0" speed="6.51" length="9.03" shape="198.40,207.20 198.05,204.75 197.00,203.00 195.25,201.95 192.80,201.60"/>
    </edge>
    <edge id=":c_1" function="internal">
        <lane id=":c_1_0" index="0" speed="50.00" length="14.40" shape="198.40,207.20 198.40,192.80"/>
    </edge>
    <edge id=":c_2" function="internal">
        <lane id=":c_2_0" index="0" speed="8.00" length="14.19" shape="198.40,207.20 198.95,203.35 200.60,200.60 203.35,198.95 207.20,198.40"/>
    </edge>
    <edge id=":c_3" function="internal">
        <lane id=":c_3_0" index="0" speed="6.51" length="9.03" shape="207.20,201.60 204.75,201.95 203.00,203.00 201.95,204.75 201.60,207.20"/>
    </edge>
    <edge id=":c_4" function="internal">
        <lane id=":c_4_0" index="0" speed="50.00" length="14.40" shape="207.20,201.60 192.80,201.60"/>
    </edge>
    <edge id=":c_5" function="internal">
        <lane id=":c_5_0" index="0" speed="8.00" length="14.19" shape="207.20,201.60 203.35,201.05 200.60,199.40 198.95,196.65 198.40,192.80"/>
    </edge>
    <edge id=":c_6" function="internal">
        <lane id=":c_6_0" index="0" speed="6.51" length="9.03" shape="201.60,192.80 201.95,195.25 203.00,197.00 204.75,198.05 207.20,198.40"/>
    </edge>
    <edge id=":c_7" function="internal">
        <lane id=":c_7_0" index="0" speed="50.00" length="14.40" shape="201.60,192.80 201.60,207.20"/>
    </edge>
    <edge id=":c_8" function="internal">
        <lane id=":c_8_0" index="0" speed="8.00" length="14.19" shape="201.60,192.80 201.05,196.65 199.40,199.40 196.65,201.05 192.80,201.60"/>
    </edge>
    <edge id=":c_9" function="internal">
        <lane id=":c_9_0" index="0" speed="6.51" length="9.03" shape="192.80,198.40 195.25,198.05 197.00,197.00 198.05,195.25 198.40,192.80"/>
    </edge>
    <edge id=":c_10" function="internal">
        <lane id=":c_10_0" index="0" speed="50.00" length="14.40" shape="192.80,198.40 207.20,198.40"/>
    </edge>
    <edge id=":c_11" function="internal">
        <lane id=":c_11_0" index="0" speed="8.00" length="14.19" shape="192.80,198.40 196.65,198.95 199.40,200.60 201.05,203.35 201.60,207.20"/>
    </edge>
    <edge id=":e_0" function="internal">
        <lane id=":e_0_0" index="0" speed="3.65" length="4.67" shape="400.00,198.40 401.20,199.20 401.60,200.00 401.20,200.80 400.00,201.60"/>
    </edge>
    <edge id=":n_0" function="internal">
        <lane id=":n_0_0" index="0" speed="3.65" length="4.67" shape="201.60,400.00 200.80,401.20 200.00,401.60 199.20,401.20 198.40,400.00"/>
    </edge>
    <edge id=":s_0" function="internal">
        <lane id=":s_0_0" index="0" speed="3.65" length="4.67" shape="198.40,0.00 199.20,-1.20 200.00,-1.60 200.80,-1.20 201.60,0.00"/>
    </edge>
    <edge id=":w_0" function="internal">
        <lane id=":w_0_0" index="0" speed="3.65" length="4.67" shape="0.00,201.60 -1.20,200.80 -1.60,200.00 -1.20,199.20 0.00,198.40"/>
    </edge>

    <edge id="edge_ce" from="c" to="e" priority="-1" type="default">
        <lane id="edge_ce_0" index="0" speed="50.00" length="192.80" shape="207.20,198.40 400.00,198.40"/>
    </edge>
    <edge id="edge_cn" from="c" to="n" priority="-1" type="default">
        <lane id="edge_cn_0" index="0" speed="50.00" length="192.80" shape="201.60,207.20 201.60,400.00"/>
    </edge>
    <edge id="edge_cs" from="c" to="s" priority="-1" type="default">
        <lane id="edge_cs_0" index="0" speed="50.00" length="192.80" shape="198.40,192.80 198.40,0.00"/>
    </edge>
    <edge id="edge_cw" from="c" to="w" priority="-1" type="default">
        <lane id="edge_cw_0" index="0" speed="50.00" length="192.80" shape="192.80,201.60 0.00,201.60"/>
    </edge>
    <edge id="edge_ec" from="e" to="c" priority="-1" type="default">
        <lane id="edge_ec_0" index="0" speed="50.00" length="192.80" shape="400.00,201.60 207.20,201.60"/>
    </edge>
    <edge id="edge_nc" from="n" to="c" priority="-1" type="default">
        <lane id="edge_nc_0" index="0" speed="50.00" length="192.80" shape="198.40,400.00 198.40,207.20"/>
    </edge>
    <edge id="edge_sc" from="s" to="c" priority="-1" type="default">
        <lane id="edge_sc_0" index="0" speed="50.00" length="192.80" shape="201.60,0.00 201.60,192.80"/>
    </edge>
    <edge id="edge_wc" from="w" to="c" priority="-1" type="default">
        <lane id="edge_wc_0" index="0" speed="50.00" length="192.80" shape="0.00,198.40 192.80,198.40"/>
    </edge>

    <tlLogic id="c" type="static" programID="c" offset="0">
        <phase duration="30" state="rrrGGGrrrGGG"/>
        <phase duration="3"  state="rrryyyrrryyy"/>
        <phase duration="30" state="GGGrrrGGGrrr"/>
        <phase duration="3"  state="yyyrrryyyrrr"/>
    </tlLogic>

    <junction id="c" type="traffic_light" x="200.00" y="200.00" incLanes="edge_nc_0 edge_ec_0 edge_sc_0 edge_wc_0" intLanes=":c_0_0 :c_1_0 :c_2_0 :c_3_0 :c_4_0 :c_5_0 :c_6_0 :c_7_0 :c_8_0 :c_9_0 :c_10_0 :c_11_0" shape="196.80,207.20 203.20,207.20 203.64,204.98 204.20,204.20 204.98,203.64 205.98,203.31 207.20,203.20 207.20,196.80 204.98,196.36 204.20,195.80 203.64,195.02 203.31,194.02 203.20,192.80 196.80,192.80 196.36,195.02 195.80,195.80 195.02,196.36 194.02,196.69 192.80,196.80 192.80,203.20 195.02,203.64 195.80,204.20 196.36,204.98 196.69,205.98">
        <request index="0"  response="000000000000" foes="000100010000" cont="0"/>
        <request index="1"  response="000000000000" foes="111100110000" cont="0"/>
        <request index="2"  response="000111000000" foes="110111110000" cont="0"/>
        <request index="3"  response="000010000000" foes="100010000000" cont="0"/>
        <request index="4"  response="000110000111" foes="100110000111" cont="0"/>
        <request index="5"  response="111110000110" foes="111110000110" cont="0"/>
        <request index="6"  response="000000000000" foes="010000000100" cont="0"/>
        <request index="7"  response="000000000000" foes="110000111100" cont="0"/>
        <request index="8"  response="000000000011" foes="110000110111" cont="0"/>
        <request index="9"  response="000000000010" foes="000000100010" cont="0"/>
        <request index="10" response="000111000110" foes="000111100110" cont="0"/>
        <request index="11" response="000110011110" foes="000110111110" cont="0"/>
    </junction>
    <junction id="e" type="priority" x="400.00" y="200.00" incLanes="edge_ce_0" intLanes=":e_0_0" shape="400.00,200.00 400.00,196.80 400.00,200.00">
        <request index="0" response="0" foes="0" cont="0"/>
    </junction>
    <junction id="n" type="priority" x="200.00" y="400.00" incLanes="edge_cn_0" intLanes=":n_0_0" shape="200.00,400.00 203.20,400.00 200.00,400.00">
        <request index="0" response="0" foes="0" cont="0"/>
    </junction>
    <junction id="s" type="priority" x="200.00" y="0.00" incLanes="edge_cs_0" intLanes=":s_0_0" shape="200.00,0.00 196.80,0.00 200.00,0.00">
        <request index="0" response="0" foes="0" cont="0"/>
    </junction>
    <junction id="w" type="priority" x="0.00" y="200.00" incLanes="edge_cw_0" intLanes=":w_0_0" shape="0.00,200.00 0.00,203.20 0.00,200.00">
        <request index="0" response="0" foes="0" cont="0"/>
    </junction>

    <connection from="edge_ce" to="edge_ec" fromLane="0" toLane="0" via=":e_0_0" dir="t" state="M"/>
    <connection from="edge_cn" to="edge_nc" fromLane="0" toLane="0" via=":n_0_0" dir="t" state="M"/>
    <connection from="edge_cs" to="edge_sc" fromLane="0" toLane="0" via=":s_0_0" dir="t" state="M"/>
    <connection from="edge_cw" to="edge_wc" fromLane="0" toLane="0" via=":w_0_0" dir="t" state="M"/>
    <connection from="edge_ec" to="edge_cn" fromLane="0" toLane="0" via=":c_3_0" tl="c" linkIndex="3" dir="r" state="o"/>
    <connection from="edge_ec" to="edge_cw" fromLane="0" toLane="0" via=":c_4_0" tl="c" linkIndex="4" dir="s" state="o"/>
    <connection from="edge_ec" to="edge_cs" fromLane="0" toLane="0" via=":c_5_0" tl="c" linkIndex="5" dir="l" state="o"/>
    <connection from="edge_nc" to="edge_cw" fromLane="0" toLane="0" via=":c_0_0" tl="c" linkIndex="0" dir="r" state="O"/>
    <connection from="edge_nc" to="edge_cs" fromLane="0" toLane="0" via=":c_1_0" tl="c" linkIndex="1" dir="s" state="O"/>
    <connection from="edge_nc" to="edge_ce" fromLane="0" toLane="0" via=":c_2_0" tl="c" linkIndex="2" dir="l" state="o"/>
    <connection from="edge_sc" to="edge_ce" fromLane="0" toLane="0" via=":c_6_0" tl="c" linkIndex="6" dir="r" state="O"/>
    <connection from="edge_sc" to="edge_cn" fromLane="0" toLane="0" via=":c_7_0" tl="c" linkIndex="7" dir="s" state="O"/>
    <connection from="edge_sc" to="edge_cw" fromLane="0" toLane="0" via=":c_8_0" tl="c" linkIndex="8" dir="l" state="o"/>
    <connection from="edge_wc" to="edge_cs" fromLane="0" toLane="0" via=":c_9_0" tl="c" linkIndex="9" dir="r" state="o"/>
    <connection from="edge_wc" to="edge_ce" fromLane="0" toLane="0" via=":c_10_0" tl="c" linkIndex="10" dir="s" state="o"/>
    <connection from="edge_wc" to="edge_cn" fromLane="0" toLane="0" via=":c_11_0" tl="c" linkIndex="11" dir="l" state="o"/>

    <connection from=":c_0" to="edge_cw" fromLane="0" toLane="0" dir="r" state="M"/>
    <connection from=":c_1" to="edge_cs" fromLane="0" toLane="0" dir="s" state="M"/>
    <connection from=":c_2" to="edge_ce" fromLane="0" toLane="0" dir="l" state="M"/>
    <connection from=":c_3" to="edge_cn" fromLane="0" toLane="0" dir="r" state="M"/>
    <connection from=":c_4" to="edge_cw" fromLane="0" toLane="0" dir="s" state="M"/>
    <connection from=":c_5" to="edge_cs" fromLane="0" toLane="0" dir="l" state="M"/>
    <connection from=":c_6" to="edge_ce" fromLane="0" toLane="0" dir="r" state="M"/>
    <connection from=":c_7" to="edge_cn" fromLane="0" toLane="0" dir="s" state="M"/>
    <connection from=":c_8" to="edge_cw" fromLane="0" toLane="0" dir="l" state="M"/>
    <connection from=":c_9" to="edge_cs" fromLane="0" toLane="0" dir="r" state="M"/>
    <connection from=":c_10" to="edge_ce" fromLane="0" toLane="0" dir="s" state="M"/>
    <connection from=":c_11" to="edge_cn" fromLane="0" toLane="0" dir="l" state="M"/>
    <connection from=":e_0" to="edge_ec" fromLane="0" toLane="0" dir="t" state="M"/>
    <connection from=":n_0" to="edge_nc" fromLane="0" toLane="0" dir="t" state="M"/>
    <connection from=":s_0" to="edge_sc" fromLane="0" toLane="0" dir="t" state="M"/>
    <connection from=":w_0" to="edge_wc" fromLane="0" toLane="0" dir="t" state="M"/>

</net>
