<connections><connection from="edge_wc" to="edge_ce" /><connection from="edge_wc" to="edge_cs" /><connection from="edge_wc" to="edge_cn" /><connection from="edge_nc" to="edge_cs" /><connection from="edge_nc" to="edge_ce" /><connection from="edge_nc" to="edge_cw" /><connection from="edge_ec" to="edge_cs" /><connection from="edge_ec" to="edge_cn" /><connection from="edge_ec" to="edge_cw" /><connection from="edge_sc" to="edge_cn" /><connection from="edge_sc" to="edge_ce" /><connection from="edge_sc" to="edge_cw" /></connections>