<routes><vType id="car0" accel="0.8" decel="4.5" length="5.0" minGap="2.5" maxSpeed="55.56" sigma="0.5" tau="1.0" color="yellow" /><flow id="flow_ns" begin="0" end="14400" from="edge_nc" to="edge_cs" probability="0.018333333333333333" type="car0" /><flow id="flow_ne" begin="0" end="14400" from="edge_nc" to="edge_ce" probability="0.018333333333333333" type="car0" /><flow id="flow_nw" begin="0" end="14400" from="edge_nc" to="edge_cw" probability="0.018333333333333333" type="car0" /><flow id="flow_es" begin="0" end="14400" from="edge_ec" to="edge_cs" probability="0.018333333333333333" type="car0" /><flow id="flow_en" begin="0" end="14400" from="edge_ec" to="edge_cn" probability="0.018333333333333333" type="car0" /><flow id="flow_ew" begin="0" end="14400" from="edge_ec" to="edge_cw" probability="0.018333333333333333" type="car0" /><flow id="flow_se" begin="0" end="14400" from="edge_sc" to="edge_ce" probability="0.018333333333333333" type="car0" /><flow id="flow_sn" begin="0" end="14400" from="edge_sc" to="edge_cn" probability="0.018333333333333333" type="car0" /><flow id="flow_sw" begin="0" end="14400" from="edge_sc" to="edge_cw" probability="0.018333333333333333" type="car0" /><flow id="flow_we" begin="0" end="14400" from="edge_wc" to="edge_ce" probability="0.018333333333333333" type="car0" /><flow id="flow_wn" begin="0" end="14400" from="edge_wc" to="edge_cn" probability="0.018333333333333333" type="car0" /><flow id="flow_ws" begin="0" end="14400" from="edge_wc" to="edge_cs" probability="0.018333333333333333" type="car0" /></routes>