<additional><laneAreaDetector id="b_wc" lane="edge_wc_0" pos="172.8" endPos="-0.1" freq="100000" file="detectors.out" /><laneAreaDetector id="b_sc" lane="edge_sc_0" pos="172.8" endPos="-0.1" freq="100000" file="detectors.out" /><laneAreaDetector id="b_nc" lane="edge_nc_0" pos="172.8" endPos="-0.1" freq="100000" file="detectors.out" /><laneAreaDetector id="b_ec" lane="edge_ec_0" pos="172.8" endPos="-0.1" freq="100000" file="detectors.out" /><laneAreaDetector id="n_wc" lane="edge_wc_0" pos="0" endPos="-0.1" freq="100000" file="detectors.out" /><laneAreaDetector id="n_sc" lane="edge_sc_0" pos="0" endPos="-0.1" freq="100000" file="detectors.out" /><laneAreaDetector id="n_nc" lane="edge_nc_0" pos="0" endPos="-0.1" freq="100000" file="detectors.out" /><laneAreaDetector id="n_ec" lane="edge_ec_0" pos="0" endPos="-0.1" freq="100000" file="detectors.out" /></additional>